<?xml version="1.0" encoding="UTF-8"?>

<!-- generated on 2025-10-04 09:23:41 by Eclipse SUMO netedit Version 1.24.0
<neteditConfiguration xmlns:xsi="http://www.w3.org/2001/XMLSchema-instance" xsi:noNamespaceSchemaLocation="http://sumo.dlr.de/xsd/neteditConfiguration.xsd">

    <input>
        <sumo-net-file value="C:\sumo_project\my network\net.net.xml"/>
    </input>

    <output>
        <output-file value="C:\sumo_project\my network\net.net.xml"/>
    </output>

    <processing>
        <geometry.min-radius.fix.railways value="false"/>
        <geometry.avoid-overlap value="false"/>
        <geometry.max-grade.fix value="false"/>
        <offset.disable-normalization value="true"/>
        <lefthand value="0"/>
    </processing>

    <junctions>
        <no-turnarounds value="true"/>
        <junctions.corner-detail value="5"/>
        <junctions.limit-turn-speed value="5.50"/>
        <rectangular-lane-cut value="0"/>
    </junctions>

    <pedestrian>
        <walkingareas value="0"/>
    </pedestrian>

</neteditConfiguration>
-->

<net version="1.20" junctionCornerDetail="5" limitTurnSpeed="5.50" avoidOverlap="0" xmlns:xsi="http://www.w3.org/2001/XMLSchema-instance" xsi:noNamespaceSchemaLocation="http://sumo.dlr.de/xsd/net_file.xsd">

    <location netOffset="0.00,0.00" convBoundary="-300.00,-200.00,300.00,200.00" origBoundary="-10000000000.00,-10000000000.00,10000000000.00,10000000000.00" projParameter="!"/>

    <edge id=":J0_0" function="internal">
        <lane id=":J0_0_0" index="0" speed="6.51" length="9.03" shape="-8.00,13.60 -8.35,11.15 -9.40,9.40 -11.15,8.35 -13.60,8.00"/>
    </edge>
    <edge id=":J0_1" function="internal">
        <lane id=":J0_1_0" index="0" speed="13.89" length="27.20" shape="-8.00,13.60 -8.00,-13.60"/>
        <lane id=":J0_1_1" index="1" speed="13.89" length="27.20" shape="-4.80,13.60 -4.80,-13.60"/>
        <lane id=":J0_1_2" index="2" speed="13.89" length="27.20" shape="-1.60,13.60 -1.60,-13.60"/>
    </edge>
    <edge id=":J0_4" function="internal">
        <lane id=":J0_4_0" index="0" speed="10.36" length="5.01" shape="-1.60,13.60 -0.89,8.64"/>
    </edge>
    <edge id=":J0_20" function="internal">
        <lane id=":J0_20_0" index="0" speed="10.36" length="19.50" shape="-0.89,8.64 -0.65,6.95 2.20,2.20 6.95,-0.65 13.60,-1.60"/>
    </edge>
    <edge id=":J0_5" function="internal">
        <lane id=":J0_5_0" index="0" speed="6.51" length="9.03" shape="13.60,8.00 11.15,8.35 9.40,9.40 8.35,11.15 8.00,13.60"/>
    </edge>
    <edge id=":J0_6" function="internal">
        <lane id=":J0_6_0" index="0" speed="13.89" length="27.20" shape="13.60,8.00 -13.60,8.00"/>
        <lane id=":J0_6_1" index="1" speed="13.89" length="27.20" shape="13.60,4.80 -13.60,4.80"/>
        <lane id=":J0_6_2" index="2" speed="13.89" length="27.20" shape="13.60,1.60 -13.60,1.60"/>
    </edge>
    <edge id=":J0_9" function="internal">
        <lane id=":J0_9_0" index="0" speed="10.36" length="5.01" shape="13.60,1.60 8.64,0.89"/>
    </edge>
    <edge id=":J0_21" function="internal">
        <lane id=":J0_21_0" index="0" speed="10.36" length="19.50" shape="8.64,0.89 6.95,0.65 2.20,-2.20 -0.65,-6.95 -1.60,-13.60"/>
    </edge>
    <edge id=":J0_10" function="internal">
        <lane id=":J0_10_0" index="0" speed="6.51" length="9.03" shape="8.00,-13.60 8.35,-11.15 9.40,-9.40 11.15,-8.35 13.60,-8.00"/>
    </edge>
    <edge id=":J0_11" function="internal">
        <lane id=":J0_11_0" index="0" speed="13.89" length="27.20" shape="8.00,-13.60 8.00,13.60"/>
        <lane id=":J0_11_1" index="1" speed="13.89" length="27.20" shape="4.80,-13.60 4.80,13.60"/>
        <lane id=":J0_11_2" index="2" speed="13.89" length="27.20" shape="1.60,-13.60 1.60,13.60"/>
    </edge>
    <edge id=":J0_14" function="internal">
        <lane id=":J0_14_0" index="0" speed="10.36" length="5.01" shape="1.60,-13.60 0.89,-8.64"/>
    </edge>
    <edge id=":J0_22" function="internal">
        <lane id=":J0_22_0" index="0" speed="10.36" length="19.50" shape="0.89,-8.64 0.65,-6.95 -2.20,-2.20 -6.95,0.65 -13.60,1.60"/>
    </edge>
    <edge id=":J0_15" function="internal">
        <lane id=":J0_15_0" index="0" speed="6.51" length="9.03" shape="-13.60,-8.00 -11.15,-8.35 -9.40,-9.40 -8.35,-11.15 -8.00,-13.60"/>
    </edge>
    <edge id=":J0_16" function="internal">
        <lane id=":J0_16_0" index="0" speed="13.89" length="27.20" shape="-13.60,-8.00 13.60,-8.00"/>
        <lane id=":J0_16_1" index="1" speed="13.89" length="27.20" shape="-13.60,-4.80 13.60,-4.80"/>
        <lane id=":J0_16_2" index="2" speed="13.89" length="27.20" shape="-13.60,-1.60 13.60,-1.60"/>
    </edge>
    <edge id=":J0_19" function="internal">
        <lane id=":J0_19_0" index="0" speed="10.36" length="5.01" shape="-13.60,-1.60 -8.64,-0.89"/>
    </edge>
    <edge id=":J0_23" function="internal">
        <lane id=":J0_23_0" index="0" speed="10.36" length="19.50" shape="-8.64,-0.89 -6.95,-0.65 -2.20,2.20 0.65,6.95 1.60,13.60"/>
    </edge>
    <edge id=":J2_0" function="internal">
        <lane id=":J2_0_0" index="0" speed="11.39" length="29.85" shape="304.80,-13.60 303.85,-4.15 301.00,2.60 296.25,6.65 289.60,8.00"/>
        <lane id=":J2_0_1" index="1" speed="10.41" length="24.73" shape="301.60,-13.60 300.85,-5.55 298.60,0.20 294.85,3.65 289.60,4.80"/>
        <lane id=":J2_0_2" index="2" speed="9.84" length="21.99" shape="301.60,-13.60 300.85,-6.95 298.60,-2.20 294.85,0.65 289.60,1.60"/>
    </edge>
    <edge id=":J2_3" function="internal">
        <lane id=":J2_3_0" index="0" speed="6.51" length="9.03" shape="289.60,-8.00 292.05,-8.35 293.80,-9.40 294.85,-11.15 295.20,-13.60"/>
        <lane id=":J2_3_1" index="1" speed="8.00" length="14.19" shape="289.60,-4.80 293.45,-5.35 296.20,-7.00 297.85,-9.75 298.40,-13.60"/>
    </edge>
    <edge id=":J3_0" function="internal">
        <lane id=":J3_0_0" index="0" speed="11.39" length="29.85" shape="-289.60,8.00 -296.25,6.65 -301.00,2.60 -303.85,-4.15 -304.80,-13.60"/>
        <lane id=":J3_0_1" index="1" speed="10.41" length="24.73" shape="-289.60,4.80 -294.85,3.65 -298.60,0.20 -300.85,-5.55 -301.60,-13.60"/>
    </edge>
    <edge id=":J3_2" function="internal">
        <lane id=":J3_2_0" index="0" speed="6.51" length="9.03" shape="-295.20,-13.60 -294.85,-11.15 -293.80,-9.40 -292.05,-8.35 -289.60,-8.00"/>
        <lane id=":J3_2_1" index="1" speed="8.00" length="14.19" shape="-298.40,-13.60 -297.85,-9.75 -296.20,-7.00 -293.45,-5.35 -289.60,-4.80"/>
        <lane id=":J3_2_2" index="2" speed="8.67" length="16.85" shape="-298.40,-13.60 -297.85,-8.35 -296.20,-4.60 -293.45,-2.35 -289.60,-1.60"/>
    </edge>
    <edge id=":J5_0" function="internal">
        <lane id=":J5_0_0" index="0" speed="6.51" length="9.03" shape="-8.00,-189.60 -8.35,-192.05 -9.40,-193.80 -11.15,-194.85 -13.60,-195.20"/>
        <lane id=":J5_0_1" index="1" speed="8.00" length="14.19" shape="-4.80,-189.60 -5.35,-193.45 -7.00,-196.20 -9.75,-197.85 -13.60,-198.40"/>
    </edge>
    <edge id=":J5_2" function="internal">
        <lane id=":J5_2_0" index="0" speed="9.84" length="21.99" shape="-1.60,-189.60 -0.65,-194.85 2.20,-198.60 6.95,-200.85 13.60,-201.60"/>
    </edge>
    <edge id=":J5_3" function="internal">
        <lane id=":J5_3_0" index="0" speed="6.51" length="9.03" shape="13.60,-195.20 11.15,-194.85 9.40,-193.80 8.35,-192.05 8.00,-189.60"/>
        <lane id=":J5_3_1" index="1" speed="8.00" length="14.19" shape="13.60,-198.40 9.75,-197.85 7.00,-196.20 5.35,-193.45 4.80,-189.60"/>
    </edge>
    <edge id=":J5_5" function="internal">
        <lane id=":J5_5_0" index="0" speed="13.89" length="27.31" shape="13.60,-198.40 6.54,-197.90 0.00,-196.80 -6.54,-195.70 -13.60,-195.20"/>
        <lane id=":J5_5_1" index="1" speed="13.89" length="27.31" shape="13.60,-198.40 -13.60,-198.40"/>
    </edge>
    <edge id=":J5_7" function="internal">
        <lane id=":J5_7_0" index="0" speed="13.89" length="27.20" shape="-13.60,-204.80 13.60,-204.80"/>
        <lane id=":J5_7_1" index="1" speed="13.89" length="27.20" shape="-13.60,-201.60 13.60,-201.60"/>
    </edge>
    <edge id=":J5_9" function="internal">
        <lane id=":J5_9_0" index="0" speed="10.41" length="24.73" shape="-13.60,-201.60 -5.55,-200.85 0.20,-198.60 3.65,-194.85 4.80,-189.60"/>
        <lane id=":J5_9_1" index="1" speed="9.84" length="21.99" shape="-13.60,-201.60 -6.95,-200.85 -2.20,-198.60 0.65,-194.85 1.60,-189.60"/>
    </edge>
    <edge id=":J6_0" function="internal">
        <lane id=":J6_0_0" index="0" speed="8.96" length="18.06" shape="-304.80,-193.60 -304.10,-198.50 -302.00,-202.00 -298.50,-204.10 -293.60,-204.80"/>
        <lane id=":J6_0_1" index="1" speed="7.66" length="12.90" shape="-301.60,-193.60 -301.10,-197.10 -299.60,-199.60 -297.10,-201.10 -293.60,-201.60"/>
    </edge>
    <edge id=":J6_2" function="internal">
        <lane id=":J6_2_0" index="0" speed="3.90" length="2.58" shape="-293.60,-195.20 -294.30,-195.10 -294.80,-194.80 -295.10,-194.30 -295.20,-193.60"/>
        <lane id=":J6_2_1" index="1" speed="6.08" length="7.74" shape="-293.60,-198.40 -295.70,-198.10 -297.20,-197.20 -298.10,-195.70 -298.40,-193.60"/>
    </edge>
    <edge id=":J7_0" function="internal">
        <lane id=":J7_0_0" index="0" speed="3.90" length="2.58" shape="295.20,-193.60 295.10,-194.30 294.80,-194.80 294.30,-195.10 293.60,-195.20"/>
        <lane id=":J7_0_1" index="1" speed="6.08" length="7.74" shape="298.40,-193.60 298.10,-195.70 297.20,-197.20 295.70,-198.10 293.60,-198.40"/>
    </edge>
    <edge id=":J7_2" function="internal">
        <lane id=":J7_2_0" index="0" speed="8.96" length="18.06" shape="293.60,-204.80 298.50,-204.10 302.00,-202.00 304.10,-198.50 304.80,-193.60"/>
        <lane id=":J7_2_1" index="1" speed="7.66" length="12.90" shape="293.60,-201.60 297.10,-201.10 299.60,-199.60 301.10,-197.10 301.60,-193.60"/>
    </edge>

    <edge id="-E0" from="J6" to="J3" priority="-1">
        <lane id="-E0_0" index="0" speed="13.89" length="180.00" shape="-295.20,-193.60 -295.20,-13.60"/>
        <lane id="-E0_1" index="1" speed="13.89" length="180.00" shape="-298.40,-193.60 -298.40,-13.60"/>
    </edge>
    <edge id="-E1" from="J2" to="J0" priority="-1">
        <lane id="-E1_0" index="0" speed="13.89" length="276.00" shape="289.60,8.00 13.60,8.00"/>
        <lane id="-E1_1" index="1" speed="13.89" length="276.00" shape="289.60,4.80 13.60,4.80"/>
        <lane id="-E1_2" index="2" speed="13.89" length="276.00" shape="289.60,1.60 13.60,1.60"/>
    </edge>
    <edge id="-E2" from="J0" to="J3" priority="-1">
        <lane id="-E2_0" index="0" speed="13.89" length="276.00" shape="-13.60,8.00 -289.60,8.00"/>
        <lane id="-E2_1" index="1" speed="13.89" length="276.00" shape="-13.60,4.80 -289.60,4.80"/>
        <lane id="-E2_2" index="2" speed="13.89" length="276.00" shape="-13.60,1.60 -289.60,1.60"/>
    </edge>
    <edge id="-E3" from="J4" to="J0" priority="-1">
        <lane id="-E3_0" index="0" speed="13.89" length="186.40" shape="-8.00,200.00 -8.00,13.60"/>
        <lane id="-E3_1" index="1" speed="13.89" length="186.40" shape="-4.80,200.00 -4.80,13.60"/>
        <lane id="-E3_2" index="2" speed="13.89" length="186.40" shape="-1.60,200.00 -1.60,13.60"/>
    </edge>
    <edge id="-E4" from="J0" to="J5" priority="-1">
        <lane id="-E4_0" index="0" speed="13.89" length="176.00" shape="-8.00,-13.60 -8.00,-189.60"/>
        <lane id="-E4_1" index="1" speed="13.89" length="176.00" shape="-4.80,-13.60 -4.80,-189.60"/>
        <lane id="-E4_2" index="2" speed="13.89" length="176.00" shape="-1.60,-13.60 -1.60,-189.60"/>
    </edge>
    <edge id="-E5" from="J6" to="J5" priority="-1">
        <lane id="-E5_0" index="0" speed="13.89" length="280.00" shape="-293.60,-204.80 -13.60,-204.80"/>
        <lane id="-E5_1" index="1" speed="13.89" length="280.00" shape="-293.60,-201.60 -13.60,-201.60"/>
    </edge>
    <edge id="-E6" from="J7" to="J2" priority="-1">
        <lane id="-E6_0" index="0" speed="13.89" length="180.00" shape="304.80,-193.60 304.80,-13.60"/>
        <lane id="-E6_1" index="1" speed="13.89" length="180.00" shape="301.60,-193.60 301.60,-13.60"/>
    </edge>
    <edge id="-E7" from="J5" to="J7" priority="-1">
        <lane id="-E7_0" index="0" speed="13.89" length="280.00" shape="13.60,-204.80 293.60,-204.80"/>
        <lane id="-E7_1" index="1" speed="13.89" length="280.00" shape="13.60,-201.60 293.60,-201.60"/>
    </edge>
    <edge id="E0" from="J3" to="J6" priority="-1">
        <lane id="E0_0" index="0" speed="13.89" length="180.00" shape="-304.80,-13.60 -304.80,-193.60"/>
        <lane id="E0_1" index="1" speed="13.89" length="180.00" shape="-301.60,-13.60 -301.60,-193.60"/>
    </edge>
    <edge id="E1" from="J0" to="J2" priority="-1">
        <lane id="E1_0" index="0" speed="13.89" length="276.00" shape="13.60,-8.00 289.60,-8.00"/>
        <lane id="E1_1" index="1" speed="13.89" length="276.00" shape="13.60,-4.80 289.60,-4.80"/>
        <lane id="E1_2" index="2" speed="13.89" length="276.00" shape="13.60,-1.60 289.60,-1.60"/>
    </edge>
    <edge id="E2" from="J3" to="J0" priority="-1">
        <lane id="E2_0" index="0" speed="13.89" length="276.00" shape="-289.60,-8.00 -13.60,-8.00"/>
        <lane id="E2_1" index="1" speed="13.89" length="276.00" shape="-289.60,-4.80 -13.60,-4.80"/>
        <lane id="E2_2" index="2" speed="13.89" length="276.00" shape="-289.60,-1.60 -13.60,-1.60"/>
    </edge>
    <edge id="E3" from="J0" to="J4" priority="-1">
        <lane id="E3_0" index="0" speed="13.89" length="186.40" shape="8.00,13.60 8.00,200.00"/>
        <lane id="E3_1" index="1" speed="13.89" length="186.40" shape="4.80,13.60 4.80,200.00"/>
        <lane id="E3_2" index="2" speed="13.89" length="186.40" shape="1.60,13.60 1.60,200.00"/>
    </edge>
    <edge id="E4" from="J5" to="J0" priority="-1">
        <lane id="E4_0" index="0" speed="13.89" length="176.00" shape="8.00,-189.60 8.00,-13.60"/>
        <lane id="E4_1" index="1" speed="13.89" length="176.00" shape="4.80,-189.60 4.80,-13.60"/>
        <lane id="E4_2" index="2" speed="13.89" length="176.00" shape="1.60,-189.60 1.60,-13.60"/>
    </edge>
    <edge id="E5" from="J5" to="J6" priority="-1">
        <lane id="E5_0" index="0" speed="13.89" length="280.00" shape="-13.60,-195.20 -293.60,-195.20"/>
        <lane id="E5_1" index="1" speed="13.89" length="280.00" shape="-13.60,-198.40 -293.60,-198.40"/>
    </edge>
    <edge id="E6" from="J2" to="J7" priority="-1">
        <lane id="E6_0" index="0" speed="13.89" length="180.00" shape="295.20,-13.60 295.20,-193.60"/>
        <lane id="E6_1" index="1" speed="13.89" length="180.00" shape="298.40,-13.60 298.40,-193.60"/>
    </edge>
    <edge id="E7" from="J7" to="J5" priority="-1">
        <lane id="E7_0" index="0" speed="13.89" length="280.00" shape="293.60,-195.20 13.60,-195.20"/>
        <lane id="E7_1" index="1" speed="13.89" length="280.00" shape="293.60,-198.40 13.60,-198.40"/>
    </edge>

    <tlLogic id="J0" type="actuated" programID="0" offset="0">
    <phase duration="42" state="GGGGgrrrrrGGGGgrrrrr"/>
    <phase duration="3"  state="yyyyyrrrrryyyyyrrrrr"/>
    <phase duration="42" state="rrrrrGGGGgrrrrrGGGGg"/>
    <phase duration="3"  state="rrrrryyyyyrrrrryyyyy"/>
</tlLogic>


    <junction id="J0" type="traffic_light" x="0.00" y="0.00" incLanes="-E3_0 -E3_1 -E3_2 -E1_0 -E1_1 -E1_2 E4_0 E4_1 E4_2 E2_0 E2_1 E2_2" intLanes=":J0_0_0 :J0_1_0 :J0_1_1 :J0_1_2 :J0_20_0 :J0_5_0 :J0_6_0 :J0_6_1 :J0_6_2 :J0_21_0 :J0_10_0 :J0_11_0 :J0_11_1 :J0_11_2 :J0_22_0 :J0_15_0 :J0_16_0 :J0_16_1 :J0_16_2 :J0_23_0" shape="-9.60,13.60 9.60,13.60 10.04,11.38 10.60,10.60 11.38,10.04 12.38,9.71 13.60,9.60 13.60,-9.60 11.38,-10.04 10.60,-10.60 10.04,-11.38 9.71,-12.38 9.60,-13.60 -9.60,-13.60 -10.04,-11.38 -10.60,-10.60 -11.38,-10.04 -12.38,-9.71 -13.60,-9.60 -13.60,9.60 -11.38,10.04 -10.60,10.60 -10.04,11.38 -9.71,12.38">
        <request index="0"  response="00000000000000000000" foes="00000000000111000000" cont="0"/>
        <request index="1"  response="10000000001000000000" foes="11111100001111000000" cont="0"/>
        <request index="2"  response="10000000001000000000" foes="11111100001111000000" cont="0"/>
        <request index="3"  response="10000000001000000000" foes="11111100001111000000" cont="0"/>
        <request index="4"  response="10000011101000000000" foes="11110011101111000000" cont="1"/>
        <request index="5"  response="00000011100000000000" foes="00000011100000000000" cont="0"/>
        <request index="6"  response="00000111100000011111" foes="10000111100000011111" cont="0"/>
        <request index="7"  response="00000111100000011111" foes="10000111100000011111" cont="0"/>
        <request index="8"  response="00000111100000011111" foes="10000111100000011111" cont="0"/>
        <request index="9"  response="01110111100000011110" foes="01110111100000011110" cont="1"/>
        <request index="10" response="00000000000000000000" foes="01110000000000000000" cont="0"/>
        <request index="11" response="10000000001000000000" foes="11110000001111110000" cont="0"/>
        <request index="12" response="10000000001000000000" foes="11110000001111110000" cont="0"/>
        <request index="13" response="10000000001000000000" foes="11110000001111110000" cont="0"/>
        <request index="14" response="10000000001000001110" foes="11110000001111001110" cont="1"/>
        <request index="15" response="00000000000000001110" foes="00000000000000001110" cont="0"/>
        <request index="16" response="00000111110000011110" foes="00000111111000011110" cont="0"/>
        <request index="17" response="00000111110000011110" foes="00000111111000011110" cont="0"/>
        <request index="18" response="00000111110000011110" foes="00000111111000011110" cont="0"/>
        <request index="19" response="00000111100111011110" foes="00000111100111011110" cont="1"/>
    </junction>
    <junction id="J2" type="priority" x="300.00" y="0.00" incLanes="-E6_0 -E6_1 E1_0 E1_1 E1_2" intLanes=":J2_0_0 :J2_0_1 :J2_0_2 :J2_3_0 :J2_3_1" shape="306.40,-13.60 293.60,-13.60 293.16,-11.38 292.60,-10.60 291.82,-10.04 290.82,-9.71 289.60,-9.60 289.60,9.60 294.73,8.96 298.93,7.02 302.20,3.80 304.53,-0.71 305.93,-6.51">
        <request index="0" response="00000" foes="00000" cont="0"/>
        <request index="1" response="00000" foes="00000" cont="0"/>
        <request index="2" response="00000" foes="00000" cont="0"/>
        <request index="3" response="00000" foes="00000" cont="0"/>
        <request index="4" response="00000" foes="00000" cont="0"/>
    </junction>
    <junction id="J3" type="priority" x="-300.00" y="0.00" incLanes="-E2_0 -E2_1 -E2_2 -E0_0 -E0_1" intLanes=":J3_0_0 :J3_0_1 :J3_2_0 :J3_2_1 :J3_2_2" shape="-289.60,9.60 -289.60,-9.60 -291.82,-10.04 -292.60,-10.60 -293.16,-11.38 -293.49,-12.38 -293.60,-13.60 -306.40,-13.60 -305.93,-6.51 -304.53,-0.71 -302.20,3.80 -298.93,7.02 -294.73,8.96">
        <request index="0" response="00000" foes="00000" cont="0"/>
        <request index="1" response="00000" foes="00000" cont="0"/>
        <request index="2" response="00000" foes="00000" cont="0"/>
        <request index="3" response="00000" foes="00000" cont="0"/>
        <request index="4" response="00000" foes="00000" cont="0"/>
    </junction>
    <junction id="J4" type="dead_end" x="0.00" y="200.00" incLanes="E3_0 E3_1 E3_2" intLanes="" shape="0.00,200.00 9.60,200.00 0.00,200.00"/>
    <junction id="J5" type="priority" x="0.00" y="-200.00" incLanes="-E4_0 -E4_1 -E4_2 E7_0 E7_1 -E5_0 -E5_1" intLanes=":J5_0_0 :J5_0_1 :J5_2_0 :J5_3_0 :J5_3_1 :J5_5_0 :J5_5_1 :J5_7_0 :J5_7_1 :J5_9_0 :J5_9_1" shape="-9.60,-189.60 9.60,-189.60 10.04,-191.82 10.60,-192.60 11.38,-193.16 12.38,-193.49 13.60,-193.60 13.60,-206.40 -13.60,-206.40 -13.60,-193.60 -11.38,-193.16 -10.60,-192.60 -10.04,-191.82 -9.71,-190.82">
        <request index="0"  response="00000000000" foes="00001100000" cont="0"/>
        <request index="1"  response="00000000000" foes="00001100000" cont="0"/>
        <request index="2"  response="00000000000" foes="11111100000" cont="0"/>
        <request index="3"  response="00000000000" foes="11000000000" cont="0"/>
        <request index="4"  response="00000000000" foes="11000000000" cont="0"/>
        <request index="5"  response="00000000111" foes="11000000111" cont="0"/>
        <request index="6"  response="00000000111" foes="11000000111" cont="0"/>
        <request index="7"  response="00000000100" foes="00000000100" cont="0"/>
        <request index="8"  response="00000000100" foes="00000000100" cont="0"/>
        <request index="9"  response="00001111100" foes="00001111100" cont="0"/>
        <request index="10" response="00001111100" foes="00001111100" cont="0"/>
    </junction>
    <junction id="J6" type="priority" x="-300.00" y="-200.00" incLanes="E0_0 E0_1 E5_0 E5_1" intLanes=":J6_0_0 :J6_0_1 :J6_2_0 :J6_2_1" shape="-306.40,-193.60 -293.60,-193.60 -293.60,-206.40 -297.51,-206.04 -300.71,-204.98 -303.20,-203.20 -304.98,-200.71 -306.04,-197.51">
        <request index="0" response="0000" foes="0000" cont="0"/>
        <request index="1" response="0000" foes="0000" cont="0"/>
        <request index="2" response="0000" foes="0000" cont="0"/>
        <request index="3" response="0000" foes="0000" cont="0"/>
    </junction>
    <junction id="J7" type="priority" x="300.00" y="-200.00" incLanes="E6_0 E6_1 -E7_0 -E7_1" intLanes=":J7_0_0 :J7_0_1 :J7_2_0 :J7_2_1" shape="293.60,-193.60 306.40,-193.60 306.04,-197.51 304.98,-200.71 303.20,-203.20 300.71,-204.98 297.51,-206.04 293.60,-206.40">
        <request index="0" response="0000" foes="0000" cont="0"/>
        <request index="1" response="0000" foes="0000" cont="0"/>
        <request index="2" response="0000" foes="0000" cont="0"/>
        <request index="3" response="0000" foes="0000" cont="0"/>
    </junction>

    <junction id=":J0_20_0" type="internal" x="-0.89" y="8.64" incLanes=":J0_4_0 E4_0 E4_1 E4_2" intLanes=":J0_6_0 :J0_6_1 :J0_6_2 :J0_9_0 :J0_10_0 :J0_11_0 :J0_11_1 :J0_11_2 :J0_16_0 :J0_16_1 :J0_16_2 :J0_19_0"/>
    <junction id=":J0_21_0" type="internal" x="8.64" y="0.89" incLanes=":J0_9_0 E2_0 E2_1 E2_2" intLanes=":J0_1_0 :J0_1_1 :J0_1_2 :J0_4_0 :J0_11_0 :J0_11_1 :J0_11_2 :J0_14_0 :J0_15_0 :J0_16_0 :J0_16_1 :J0_16_2"/>
    <junction id=":J0_22_0" type="internal" x="0.89" y="-8.64" incLanes=":J0_14_0 -E3_0 -E3_1 -E3_2" intLanes=":J0_0_0 :J0_1_0 :J0_1_1 :J0_1_2 :J0_6_0 :J0_6_1 :J0_6_2 :J0_9_0 :J0_16_0 :J0_16_1 :J0_16_2 :J0_19_0"/>
    <junction id=":J0_23_0" type="internal" x="-8.64" y="-0.89" incLanes=":J0_19_0 -E1_0 -E1_1 -E1_2" intLanes=":J0_1_0 :J0_1_1 :J0_1_2 :J0_4_0 :J0_5_0 :J0_6_0 :J0_6_1 :J0_6_2 :J0_11_0 :J0_11_1 :J0_11_2 :J0_14_0"/>

    <connection from="-E0" to="E2" fromLane="0" toLane="0" via=":J3_2_0" dir="r" state="M"/>
    <connection from="-E0" to="E2" fromLane="1" toLane="1" via=":J3_2_1" dir="r" state="M"/>
    <connection from="-E0" to="E2" fromLane="1" toLane="2" via=":J3_2_2" dir="r" state="M"/>
    <connection from="-E1" to="E3" fromLane="0" toLane="0" via=":J0_5_0" tl="J0" linkIndex="5" dir="r" state="o"/>
    <connection from="-E1" to="-E2" fromLane="0" toLane="0" via=":J0_6_0" tl="J0" linkIndex="6" dir="s" state="o"/>
    <connection from="-E1" to="-E2" fromLane="1" toLane="1" via=":J0_6_1" tl="J0" linkIndex="7" dir="s" state="o"/>
    <connection from="-E1" to="-E2" fromLane="2" toLane="2" via=":J0_6_2" tl="J0" linkIndex="8" dir="s" state="o"/>
    <connection from="-E1" to="-E4" fromLane="2" toLane="2" via=":J0_9_0" tl="J0" linkIndex="9" dir="l" state="o"/>
    <connection from="-E2" to="E0" fromLane="0" toLane="0" via=":J3_0_0" dir="l" state="M"/>
    <connection from="-E2" to="E0" fromLane="1" toLane="1" via=":J3_0_1" dir="l" state="M"/>
    <connection from="-E3" to="-E2" fromLane="0" toLane="0" via=":J0_0_0" tl="J0" linkIndex="0" dir="r" state="O"/>
    <connection from="-E3" to="-E4" fromLane="0" toLane="0" via=":J0_1_0" tl="J0" linkIndex="1" dir="s" state="O"/>
    <connection from="-E3" to="-E4" fromLane="1" toLane="1" via=":J0_1_1" tl="J0" linkIndex="2" dir="s" state="O"/>
    <connection from="-E3" to="-E4" fromLane="2" toLane="2" via=":J0_1_2" tl="J0" linkIndex="3" dir="s" state="O"/>
    <connection from="-E3" to="E1" fromLane="2" toLane="2" via=":J0_4_0" tl="J0" linkIndex="4" dir="l" state="o"/>
    <connection from="-E4" to="E5" fromLane="0" toLane="0" via=":J5_0_0" dir="r" state="M"/>
    <connection from="-E4" to="E5" fromLane="1" toLane="1" via=":J5_0_1" dir="r" state="M"/>
    <connection from="-E4" to="-E7" fromLane="2" toLane="1" via=":J5_2_0" dir="l" state="M"/>
    <connection from="-E5" to="-E7" fromLane="0" toLane="0" via=":J5_7_0" dir="s" state="m"/>
    <connection from="-E5" to="-E7" fromLane="1" toLane="1" via=":J5_7_1" dir="s" state="m"/>
    <connection from="-E5" to="E4" fromLane="1" toLane="1" via=":J5_9_0" dir="l" state="m"/>
    <connection from="-E5" to="E4" fromLane="1" toLane="2" via=":J5_9_1" dir="l" state="m"/>
    <connection from="-E6" to="-E1" fromLane="0" toLane="0" via=":J2_0_0" dir="l" state="M"/>
    <connection from="-E6" to="-E1" fromLane="1" toLane="1" via=":J2_0_1" dir="l" state="M"/>
    <connection from="-E6" to="-E1" fromLane="1" toLane="2" via=":J2_0_2" dir="l" state="M"/>
    <connection from="-E7" to="-E6" fromLane="0" toLane="0" via=":J7_2_0" dir="l" state="M"/>
    <connection from="-E7" to="-E6" fromLane="1" toLane="1" via=":J7_2_1" dir="l" state="M"/>
    <connection from="E0" to="-E5" fromLane="0" toLane="0" via=":J6_0_0" dir="l" state="M"/>
    <connection from="E0" to="-E5" fromLane="1" toLane="1" via=":J6_0_1" dir="l" state="M"/>
    <connection from="E1" to="E6" fromLane="0" toLane="0" via=":J2_3_0" dir="r" state="M"/>
    <connection from="E1" to="E6" fromLane="1" toLane="1" via=":J2_3_1" dir="r" state="M"/>
    <connection from="E2" to="-E4" fromLane="0" toLane="0" via=":J0_15_0" tl="J0" linkIndex="15" dir="r" state="o"/>
    <connection from="E2" to="E1" fromLane="0" toLane="0" via=":J0_16_0" tl="J0" linkIndex="16" dir="s" state="o"/>
    <connection from="E2" to="E1" fromLane="1" toLane="1" via=":J0_16_1" tl="J0" linkIndex="17" dir="s" state="o"/>
    <connection from="E2" to="E1" fromLane="2" toLane="2" via=":J0_16_2" tl="J0" linkIndex="18" dir="s" state="o"/>
    <connection from="E2" to="E3" fromLane="2" toLane="2" via=":J0_19_0" tl="J0" linkIndex="19" dir="l" state="o"/>
    <connection from="E4" to="E1" fromLane="0" toLane="0" via=":J0_10_0" tl="J0" linkIndex="10" dir="r" state="O"/>
    <connection from="E4" to="E3" fromLane="0" toLane="0" via=":J0_11_0" tl="J0" linkIndex="11" dir="s" state="O"/>
    <connection from="E4" to="E3" fromLane="1" toLane="1" via=":J0_11_1" tl="J0" linkIndex="12" dir="s" state="O"/>
    <connection from="E4" to="E3" fromLane="2" toLane="2" via=":J0_11_2" tl="J0" linkIndex="13" dir="s" state="O"/>
    <connection from="E4" to="-E2" fromLane="2" toLane="2" via=":J0_14_0" tl="J0" linkIndex="14" dir="l" state="o"/>
    <connection from="E5" to="-E0" fromLane="0" toLane="0" via=":J6_2_0" dir="r" state="M"/>
    <connection from="E5" to="-E0" fromLane="1" toLane="1" via=":J6_2_1" dir="r" state="M"/>
    <connection from="E6" to="E7" fromLane="0" toLane="0" via=":J7_0_0" dir="r" state="M"/>
    <connection from="E6" to="E7" fromLane="1" toLane="1" via=":J7_0_1" dir="r" state="M"/>
    <connection from="E7" to="E4" fromLane="0" toLane="0" via=":J5_3_0" dir="r" state="M"/>
    <connection from="E7" to="E4" fromLane="1" toLane="1" via=":J5_3_1" dir="r" state="M"/>
    <connection from="E7" to="E5" fromLane="1" toLane="0" via=":J5_5_0" dir="s" state="m"/>
    <connection from="E7" to="E5" fromLane="1" toLane="1" via=":J5_5_1" dir="s" state="m"/>

    <connection from=":J0_0" to="-E2" fromLane="0" toLane="0" dir="r" state="M"/>
    <connection from=":J0_1" to="-E4" fromLane="0" toLane="0" dir="s" state="M"/>
    <connection from=":J0_1" to="-E4" fromLane="1" toLane="1" dir="s" state="M"/>
    <connection from=":J0_1" to="-E4" fromLane="2" toLane="2" dir="s" state="M"/>
    <connection from=":J0_4" to="E1" fromLane="0" toLane="2" via=":J0_20_0" dir="l" state="m"/>
    <connection from=":J0_20" to="E1" fromLane="0" toLane="2" dir="l" state="M"/>
    <connection from=":J0_5" to="E3" fromLane="0" toLane="0" dir="r" state="M"/>
    <connection from=":J0_6" to="-E2" fromLane="0" toLane="0" dir="s" state="M"/>
    <connection from=":J0_6" to="-E2" fromLane="1" toLane="1" dir="s" state="M"/>
    <connection from=":J0_6" to="-E2" fromLane="2" toLane="2" dir="s" state="M"/>
    <connection from=":J0_9" to="-E4" fromLane="0" toLane="2" via=":J0_21_0" dir="l" state="m"/>
    <connection from=":J0_21" to="-E4" fromLane="0" toLane="2" dir="l" state="M"/>
    <connection from=":J0_10" to="E1" fromLane="0" toLane="0" dir="r" state="M"/>
    <connection from=":J0_11" to="E3" fromLane="0" toLane="0" dir="s" state="M"/>
    <connection from=":J0_11" to="E3" fromLane="1" toLane="1" dir="s" state="M"/>
    <connection from=":J0_11" to="E3" fromLane="2" toLane="2" dir="s" state="M"/>
    <connection from=":J0_14" to="-E2" fromLane="0" toLane="2" via=":J0_22_0" dir="l" state="m"/>
    <connection from=":J0_22" to="-E2" fromLane="0" toLane="2" dir="l" state="M"/>
    <connection from=":J0_15" to="-E4" fromLane="0" toLane="0" dir="r" state="M"/>
    <connection from=":J0_16" to="E1" fromLane="0" toLane="0" dir="s" state="M"/>
    <connection from=":J0_16" to="E1" fromLane="1" toLane="1" dir="s" state="M"/>
    <connection from=":J0_16" to="E1" fromLane="2" toLane="2" dir="s" state="M"/>
    <connection from=":J0_19" to="E3" fromLane="0" toLane="2" via=":J0_23_0" dir="l" state="m"/>