<?xml version="1.0" encoding="UTF-8"?>
<routes>
  <!-- Vehicle type -->
  <vType id="car" accel="2.6" decel="4.5" sigma="0.5" length="5.0" maxSpeed="13.9"/>

  <!-- WEST incoming (E2 -> J0) -->
  <flow id="west_to_east" begin="0" end="7200" number="800" from="E2" to="E6" type="car"/>   <!-- straight -->
  <flow id="west_to_north" begin="0" end="7200" number="100" from="E2" to="E3" type="car"/>  <!-- left -->
  <flow id="west_to_south" begin="0" end="7200" number="100" from="E2" to="E4" type="car"/>  <!-- right -->

  <!-- EAST incoming (E1 -> J0) -->
  <flow id="east_to_west" begin="0" end="7200" number="800" from="E1" to="E0" type="car"/>   <!-- straight -->
  <flow id="east_to_south" begin="0" end="7200" number="100" from="E1" to="E4" type="car"/>  <!-- left -->
  <flow id="east_to_north" begin="0" end="7200" number="100" from="E1" to="E3" type="car"/>  <!-- right -->

  <!-- SOUTH incoming (E4 -> J0) -->
  <flow id="south_to_north" begin="0" end="7200" number="800" from="E4" to="E3" type="car"/> <!-- straight -->
  <flow id="south_to_west" begin="0" end="7200" number="100" from="E4" to="E0" type="car"/>  <!-- left -->
  <flow id="south_to_east" begin="0" end="7200" number="100" from="E4" to="E6" type="car"/>  <!-- right -->

  <!-- NORTH incoming (-E3 -> J0) -->
  <flow id="north_to_south" begin="0" end="7200" number="800" from="-E3" to="-E4" type="car"/> <!-- straight -->
  <flow id="north_to_east" begin="0" end="7200" number="100" from="-E3" to="E6" type="car"/>  <!-- left -->
  <flow id="north_to_west" begin="0" end="7200" number="100" from="-E3" to="E0" type="car"/>  <!-- right -->

</routes>
